AMOSTRA/ABA/Chaves.dss
! ==========================================================
! CHAVES — geradas de UNSEMT (Line com Switch=Y)
! ==========================================================
! 70 chave(s) omitida(s): os dois PACs fora da rede de MT deste alimentador, o que criaria ilha flutuante — ex.: 2785611, 3159643, 2747420
New Line.3212215 Phases=1 Bus1=26282-10915538.1 Bus2=26282-10915538c.1 Switch=Y r1=1e-4 x1=1e-4 r0=1e-4 x0=1e-4 normamps=9999
New Line.3098628 Phases=3 Bus1=16112-12340129.1.2.3 Bus2=16112-12340129c.1.2.3 Switch=Y r1=1e-4 x1=1e-4 r0=1e-4 x0=1e-4 normamps=9999
New Line.2746802 Phases=1 Bus1=15842-10696481.1 Bus2=15842-10696481c.1 Switch=Y r1=1e-4 x1=1e-4 r0=1e-4 x0=1e-4 normamps=9999
New Line.2746733 Phases=1 Bus1=15842-10696272.2 Bus2=15842-10696272c.2 Switch=Y r1=1e-4 x1=1e-4 r0=1e-4 x0=1e-4 normamps=9999
New Line.3092423 Phases=3 Bus1=15842-10704302.1.2.3 Bus2=15842-10704302c.1.2.3 Switch=Y r1=1e-4 x1=1e-4 r0=1e-4 x0=1e-4 normamps=9999
New Line.2788920 Phases=1 Bus1=26282-10921926.1 Bus2=26282-10921926c.1 Switch=Y r1=1e-4 x1=1e-4 r0=1e-4 x0=1e-4 normamps=9999
New Line.2783290 Phases=3 Bus1=26283-10869751.1.2.3 Bus2=26283-10869751c.1.2.3 Switch=Y r1=1e-4 x1=1e-4 r0=1e-4 x0=1e-4 normamps=9999
New Line.2783447 Phases=3 Bus1=16102-10869775.1.2.3 Bus2=16102-10869775c.1.2.3 Switch=Y r1=1e-4 x1=1e-4 r0=1e-4 x0=1e-4 normamps=9999
New Line.3074828 Phases=1 Bus1=21643-10870673.1 Bus2=21643-10870673c.1 Switch=Y r1=1e-4 x1=1e-4 r0=1e-4 x0=1e-4 normamps=9999
New Line.2783389 Phases=3 Bus1=16102-10868797.1.2.3 Bus2=16102-10868797c.1.2.3 Switch=Y r1=1e-4 x1=1e-4 r0=1e-4 x0=1e-4 normamps=9999
New Line.2846112 Phases=3 Bus1=25323-11274113.1.2.3 Bus2=25323-11274113c.1.2.3 Switch=Y r1=1e-4 x1=1e-4 r0=1e-4 x0=1e-4 normamps=9999
New Line.3135580 Phases=3 Bus1=25323-11271071.1.2.3 Bus2=25323-11271071c.1.2.3 Switch=Y r1=1e-4 x1=1e-4 r0=1e-4 x0=1e-4 normamps=9999
New Line.2746751 Phases=1 Bus1=15842-10714407.1 Bus2=15842-10714407c.1 Switch=Y r1=1e-4 x1=1e-4 r0=1e-4 x0=1e-4 normamps=9999
New Line.2747891 Phases=1 Bus1=15842-10707156.2 Bus2=15842-10707156c.2 Switch=Y r1=1e-4 x1=1e-4 r0=1e-4 x0=1e-4 normamps=9999
New Line.2748019 Phases=1 Bus1=15842-10705745.2 Bus2=15842-10705745c.2 Switch=Y r1=1e-4 x1=1e-4 r0=1e-4 x0=1e-4 normamps=9999
New Line.2746360 Phases=1 Bus1=15842-10709828.1 Bus2=15842-10709828c.1 Switch=Y r1=1e-4 x1=1e-4 r0=1e-4 x0=1e-4 normamps=9999
New Line.2746792 Phases=1 Bus1=15842-10714923.2 Bus2=15842-10714923c.2 Switch=Y r1=1e-4 x1=1e-4 r0=1e-4 x0=1e-4 normamps=9999
New Line.2748021 Phases=1 Bus1=15842-10710284.2 Bus2=15842-10710284c.2 Switch=Y r1=1e-4 x1=1e-4 r0=1e-4 x0=1e-4 normamps=9999
New Line.2747904 Phases=3 Bus1=15842-10710225.1.2.3 Bus2=15842-10710225c.1.2.3 Switch=Y r1=1e-4 x1=1e-4 r0=1e-4 x0=1e-4 normamps=9999
New Line.2846198 Phases=1 Bus1=25323-11273915.1 Bus2=25323-11273915c.1 Switch=Y r1=1e-4 x1=1e-4 r0=1e-4 x0=1e-4 normamps=9999
New Line.2930978 Phases=1 Bus1=26282-11427996.1 Bus2=26282-11427996c.1 Switch=Y r1=1e-4 x1=1e-4 r0=1e-4 x0=1e-4 normamps=9999
New Line.3020478 Phases=2 Bus1=15842-11839076.1.2 Bus2=15842-11839076c.1.2 Switch=Y r1=1e-4 x1=1e-4 r0=1e-4 x0=1e-4 normamps=9999
New Line.3039491 Phases=2 Bus1=15842-11956916.1.2 Bus2=15842-11956916c.1.2 Switch=Y r1=1e-4 x1=1e-4 r0=1e-4 x0=1e-4 normamps=9999
New Line.3071405 Phases=2 Bus1=15842-12160103.2.3 Bus2=15842-12160103c.2.3 Switch=Y r1=1e-4 x1=1e-4 r0=1e-4 x0=1e-4 normamps=9999
New Line.3127720 Phases=3 Bus1=21642-12520688.1.2.3 Bus2=21642-12520688c.1.2.3 Switch=Y r1=1e-4 x1=1e-4 r0=1e-4 x0=1e-4 normamps=9999
New Line.3133895 Phases=3 Bus1=25323-12559966.1.2.3 Bus2=25323-12559966c.1.2.3 Switch=Y r1=1e-4 x1=1e-4 r0=1e-4 x0=1e-4 normamps=9999
New Line.2788701 Phases=3 Bus1=16112-12564788.1.2.3 Bus2=16112-12564788c.1.2.3 Switch=Y r1=1e-4 x1=1e-4 r0=1e-4 x0=1e-4 normamps=9999
New Line.3212217 Phases=1 Bus1=26282-13200610.2 Bus2=26282-13200610c.2 Switch=Y r1=1e-4 x1=1e-4 r0=1e-4 x0=1e-4 normamps=9999
New Line.3215220 Phases=2 Bus1=26282-13223559.1.2 Bus2=26282-13223559c.1.2 Switch=Y r1=1e-4 x1=1e-4 r0=1e-4 x0=1e-4 normamps=9999
New Line.2788798 Phases=1 Bus1=26282-10914988.2 Bus2=26282-10914988c.2 Switch=Y r1=1e-4 x1=1e-4 r0=1e-4 x0=1e-4 normamps=9999
New Line.2788667 Phases=1 Bus1=26282-10914838.1 Bus2=26282-10914838c.1 Switch=Y r1=1e-4 x1=1e-4 r0=1e-4 x0=1e-4 normamps=9999
New Line.2789037 Phases=1 Bus1=16112-10914656.2 Bus2=16112-10914656c.2 Switch=Y r1=1e-4 x1=1e-4 r0=1e-4 x0=1e-4 normamps=9999
New Line.2747402 Phases=1 Bus1=15842-10705273.2 Bus2=15842-10705273c.2 Switch=Y r1=1e-4 x1=1e-4 r0=1e-4 x0=1e-4 normamps=9999
New Line.2746281 Phases=3 Bus1=15842-10700432.1.2.3 Bus2=15842-10700432c.1.2.3 Switch=Y r1=1e-4 x1=1e-4 r0=1e-4 x0=1e-4 normamps=9999
New Line.2747986 Phases=1 Bus1=15842-10704633.3 Bus2=15842-10704633c.3 Switch=Y r1=1e-4 x1=1e-4 r0=1e-4 x0=1e-4 normamps=9999
New Line.2789327 Phases=1 Bus1=16112-10919831.2 Bus2=16112-10919831c.2 Switch=Y r1=1e-4 x1=1e-4 r0=1e-4 x0=1e-4 normamps=9999
New Line.2789177 Phases=3 Bus1=26282-10911657.1.2.3 Bus2=26282-10911657c.1.2.3 Switch=Y r1=1e-4 x1=1e-4 r0=1e-4 x0=1e-4 normamps=9999
New Line.2788775 Phases=3 Bus1=26282-10921857.1.2.3 Bus2=26282-10921857c.1.2.3 Switch=Y r1=1e-4 x1=1e-4 r0=1e-4 x0=1e-4 normamps=9999
New Line.2789156 Phases=3 Bus1=26282-10920696.1.2.3 Bus2=26282-10920696c.1.2.3 Switch=Y r1=1e-4 x1=1e-4 r0=1e-4 x0=1e-4 normamps=9999
New Line.3123107 Phases=3 Bus1=16112-10922350.1.2.3 Bus2=16112-10922350c.1.2.3 Switch=Y r1=1e-4 x1=1e-4 r0=1e-4 x0=1e-4 normamps=9999
New Line.2788583 Phases=1 Bus1=26282-10913082.1 Bus2=26282-10913082c.1 Switch=Y r1=1e-4 x1=1e-4 r0=1e-4 x0=1e-4 normamps=9999
New Line.2783270 Phases=3 Bus1=26283-10870532.1.2.3 Bus2=26283-10870532c.1.2.3 Switch=Y r1=1e-4 x1=1e-4 r0=1e-4 x0=1e-4 normamps=9999
New Line.2783446 Phases=3 Bus1=26283-10869749.1.2.3 Bus2=26283-10869749c.1.2.3 Switch=Y r1=1e-4 x1=1e-4 r0=1e-4 x0=1e-4 normamps=9999
New Line.2783312 Phases=1 Bus1=21643-10870622.3 Bus2=21643-10870622c.3 Switch=Y r1=1e-4 x1=1e-4 r0=1e-4 x0=1e-4 normamps=9999
New Line.2845923 Phases=1 Bus1=25323-11272327.1 Bus2=25323-11272327c.1 Switch=Y r1=1e-4 x1=1e-4 r0=1e-4 x0=1e-4 normamps=9999
New Line.2846016 Phases=1 Bus1=25323-11273098.3 Bus2=25323-11273098c.3 Switch=Y r1=1e-4 x1=1e-4 r0=1e-4 x0=1e-4 normamps=9999
New Line.2991618 Phases=3 Bus1=25323-11273843.1.2.3 Bus2=25323-11273843c.1.2.3 Switch=Y r1=1e-4 x1=1e-4 r0=1e-4 x0=1e-4 normamps=9999
New Line.2845933 Phases=3 Bus1=25324-11270876.1.2.3 Bus2=25324-11270876c.1.2.3 Switch=Y r1=1e-4 x1=1e-4 r0=1e-4 x0=1e-4 normamps=9999
New Line.2968379 Phases=3 Bus1=25324-11433990.1.2.3 Bus2=25324-11433990c.1.2.3 Switch=Y r1=1e-4 x1=1e-4 r0=1e-4 x0=1e-4 normamps=9999
New Line.2747314 Phases=1 Bus1=15842-10707486.3 Bus2=15842-10707486c.3 Switch=Y r1=1e-4 x1=1e-4 r0=1e-4 x0=1e-4 normamps=9999
New Line.2747415 Phases=1 Bus1=15842-10714582.1 Bus2=15842-10714582c.1 Switch=Y r1=1e-4 x1=1e-4 r0=1e-4 x0=1e-4 normamps=9999
New Line.2746631 Phases=1 Bus1=15842-10707835.2 Bus2=15842-10707835c.2 Switch=Y r1=1e-4 x1=1e-4 r0=1e-4 x0=1e-4 normamps=9999
New Line.2747634 Phases=3 Bus1=15842-10709544.1.2.3 Bus2=15842-10709544c.1.2.3 Switch=Y r1=1e-4 x1=1e-4 r0=1e-4 x0=1e-4 normamps=9999
New Line.2785719 Phases=3 Bus1=16107-10888158.1.2.3 Bus2=16107-10888158c.1.2.3 Switch=Y r1=1e-4 x1=1e-4 r0=1e-4 x0=1e-4 normamps=9999
New Line.2785710 Phases=3 Bus1=16107-10889266.1.2.3 Bus2=16107-10889266c.1.2.3 Switch=Y r1=1e-4 x1=1e-4 r0=1e-4 x0=1e-4 normamps=9999
New Line.3095388 Phases=3 Bus1=25324-12474373.1.2.3 Bus2=25324-12474373c.1.2.3 Switch=Y r1=1e-4 x1=1e-4 r0=1e-4 x0=1e-4 normamps=9999
New Line.2846120 Phases=1 Bus1=25323-11273897.2 Bus2=25323-11273897c.2 Switch=Y r1=1e-4 x1=1e-4 r0=1e-4 x0=1e-4 normamps=9999
New Line.2927378 Phases=1 Bus1=15842-11422267.2 Bus2=15842-11422267c.2 Switch=Y r1=1e-4 x1=1e-4 r0=1e-4 x0=1e-4 normamps=9999
New Line.2935728 Phases=1 Bus1=16112-11437248.3 Bus2=16112-11437248c.3 Switch=Y r1=1e-4 x1=1e-4 r0=1e-4 x0=1e-4 normamps=9999
New Line.3030962 Phases=1 Bus1=15842-11910654.3 Bus2=15842-11910654c.3 Switch=Y r1=1e-4 x1=1e-4 r0=1e-4 x0=1e-4 normamps=9999
New Line.3030963 Phases=1 Bus1=15842-11910652.3 Bus2=15842-11910652c.3 Switch=Y r1=1e-4 x1=1e-4 r0=1e-4 x0=1e-4 normamps=9999
New Line.3062436 Phases=1 Bus1=15842-12092646.1 Bus2=15842-12092646c.1 Switch=Y r1=1e-4 x1=1e-4 r0=1e-4 x0=1e-4 normamps=9999
New Line.3097442 Phases=3 Bus1=16107-12335538.1.2.3 Bus2=16107-12335538c.1.2.3 Switch=Y r1=1e-4 x1=1e-4 r0=1e-4 x0=1e-4 normamps=9999
New Line.3115147 Phases=3 Bus1=21642-12448237.1.2.3 Bus2=21642-12448237c.1.2.3 Switch=Y r1=1e-4 x1=1e-4 r0=1e-4 x0=1e-4 normamps=9999
New Line.3106229 Phases=3 Bus1=26282-12382693.1.2.3 Bus2=26282-12382693c.1.2.3 Switch=Y r1=1e-4 x1=1e-4 r0=1e-4 x0=1e-4 normamps=9999
New Line.3185668 Phases=3 Bus1=25323-12941134.1.2.3 Bus2=25323-12941134c.1.2.3 Switch=Y r1=1e-4 x1=1e-4 r0=1e-4 x0=1e-4 normamps=9999
New Line.2747757 Phases=3 Bus1=15842-13121046.1.2.3 Bus2=15842-13121046c.1.2.3 Switch=Y r1=1e-4 x1=1e-4 r0=1e-4 x0=1e-4 normamps=9999
New Line.2789373 Phases=1 Bus1=16112-10913854.1 Bus2=16112-10913854c.1 Switch=Y r1=1e-4 x1=1e-4 r0=1e-4 x0=1e-4 normamps=9999
New Line.2789059 Phases=3 Bus1=26282-10916692.1.2.3 Bus2=26282-10916692c.1.2.3 Switch=Y r1=1e-4 x1=1e-4 r0=1e-4 x0=1e-4 normamps=9999
New Line.2746415 Phases=1 Bus1=15842-10703109.1 Bus2=15842-10703109c.1 Switch=Y r1=1e-4 x1=1e-4 r0=1e-4 x0=1e-4 normamps=9999
New Line.2748149 Phases=1 Bus1=15842-10700601.3 Bus2=15842-10700601c.3 Switch=Y r1=1e-4 x1=1e-4 r0=1e-4 x0=1e-4 normamps=9999
New Line.2746414 Phases=1 Bus1=15842-10699757.1 Bus2=15842-10699757c.1 Switch=Y r1=1e-4 x1=1e-4 r0=1e-4 x0=1e-4 normamps=9999
New Line.2746640 Phases=1 Bus1=15842-10700029.1 Bus2=15842-10700029c.1 Switch=Y r1=1e-4 x1=1e-4 r0=1e-4 x0=1e-4 normamps=9999
New Line.2788866 Phases=1 Bus1=16112-10921111.1 Bus2=16112-10921111c.1 Switch=Y r1=1e-4 x1=1e-4 r0=1e-4 x0=1e-4 normamps=9999
New Line.2788541 Phases=1 Bus1=26282-10922516.1 Bus2=26282-10922516c.1 Switch=Y r1=1e-4 x1=1e-4 r0=1e-4 x0=1e-4 normamps=9999
New Line.2789323 Phases=1 Bus1=26282-10920723.1 Bus2=26282-10920723c.1 Switch=Y r1=1e-4 x1=1e-4 r0=1e-4 x0=1e-4 normamps=9999
New Line.2789105 Phases=1 Bus1=26282-10910842.1 Bus2=26282-10910842c.1 Switch=Y r1=1e-4 x1=1e-4 r0=1e-4 x0=1e-4 normamps=9999
New Line.3136797 Phases=3 Bus1=26283-12337562.1.2.3 Bus2=26283-12337562c.1.2.3 Switch=Y r1=1e-4 x1=1e-4 r0=1e-4 x0=1e-4 normamps=9999
New Line.2785623 Phases=3 Bus1=26283-10888074.1.2.3 Bus2=26283-10888074c.1.2.3 Switch=Y r1=1e-4 x1=1e-4 r0=1e-4 x0=1e-4 normamps=9999
New Line.3137376 Phases=3 Bus1=16102-10870864.1.2.3 Bus2=16102-10870864c.1.2.3 Switch=Y r1=1e-4 x1=1e-4 r0=1e-4 x0=1e-4 normamps=9999
New Line.2746981 Phases=1 Bus1=15842-10706013.3 Bus2=15842-10706013c.3 Switch=Y r1=1e-4 x1=1e-4 r0=1e-4 x0=1e-4 normamps=9999
New Line.2746712 Phases=1 Bus1=15842-10708678.3 Bus2=15842-10708678c.3 Switch=Y r1=1e-4 x1=1e-4 r0=1e-4 x0=1e-4 normamps=9999
New Line.2747208 Phases=1 Bus1=15842-10713676.3 Bus2=15842-10713676c.3 Switch=Y r1=1e-4 x1=1e-4 r0=1e-4 x0=1e-4 normamps=9999
New Line.2789151 Phases=1 Bus1=26282-10918972.2 Bus2=26282-10918972c.2 Switch=Y r1=1e-4 x1=1e-4 r0=1e-4 x0=1e-4 normamps=9999
New Line.2747916 Phases=1 Bus1=15842-10702774.3 Bus2=15842-10702774c.3 Switch=Y r1=1e-4 x1=1e-4 r0=1e-4 x0=1e-4 normamps=9999
New Line.2747920 Phases=1 Bus1=15842-10702197.3 Bus2=15842-10702197c.3 Switch=Y r1=1e-4 x1=1e-4 r0=1e-4 x0=1e-4 normamps=9999
New Line.2788776 Phases=1 Bus1=26282-10910363.2 Bus2=26282-10910363c.2 Switch=Y r1=1e-4 x1=1e-4 r0=1e-4 x0=1e-4 normamps=9999
New Line.3098496 Phases=3 Bus1=16107-12339572.1.2.3 Bus2=16107-12339572c.1.2.3 Switch=Y r1=1e-4 x1=1e-4 r0=1e-4 x0=1e-4 normamps=9999
New Line.3128310 Phases=3 Bus1=25323-11667667.1.2.3 Bus2=25323-11667667c.1.2.3 Switch=Y r1=1e-4 x1=1e-4 r0=1e-4 x0=1e-4 normamps=9999
New Line.3131429 Phases=3 Bus1=21642-12545741.1.2.3 Bus2=21642-12545741c.1.2.3 Switch=Y r1=1e-4 x1=1e-4 r0=1e-4 x0=1e-4 normamps=9999
New Line.3021073 Phases=2 Bus1=15842-11843784.1.2 Bus2=15842-11843784c.1.2 Switch=Y r1=1e-4 x1=1e-4 r0=1e-4 x0=1e-4 normamps=9999
New Line.3021266 Phases=2 Bus1=15842-11845131.3.1 Bus2=15842-11845131c.3.1 Switch=Y r1=1e-4 x1=1e-4 r0=1e-4 x0=1e-4 normamps=9999
New Line.3021432 Phases=2 Bus1=15842-11846137.2.3 Bus2=15842-11846137c.2.3 Switch=Y r1=1e-4 x1=1e-4 r0=1e-4 x0=1e-4 normamps=9999
New Line.3021084 Phases=2 Bus1=15842-11843727.1.2 Bus2=15842-11843727c.1.2 Switch=Y r1=1e-4 x1=1e-4 r0=1e-4 x0=1e-4 normamps=9999
New Line.3020468 Phases=2 Bus1=15842-11838687.1.2 Bus2=15842-11838687c.1.2 Switch=Y r1=1e-4 x1=1e-4 r0=1e-4 x0=1e-4 normamps=9999
New Line.3134795 Phases=3 Bus1=16112-12565468.1.2.3 Bus2=16112-12565468c.1.2.3 Switch=Y r1=1e-4 x1=1e-4 r0=1e-4 x0=1e-4 normamps=9999
New Line.3180248 Phases=3 Bus1=26282-12886695.1.2.3 Bus2=26282-12886695c.1.2.3 Switch=Y r1=1e-4 x1=1e-4 r0=1e-4 x0=1e-4 normamps=9999
New Line.3213282 Phases=3 Bus1=15842-13208397.1.2.3 Bus2=15842-13208397c.1.2.3 Switch=Y r1=1e-4 x1=1e-4 r0=1e-4 x0=1e-4 normamps=9999
New Line.3215217 Phases=2 Bus1=26282-13223563.1.2 Bus2=26282-13223563c.1.2 Switch=Y r1=1e-4 x1=1e-4 r0=1e-4 x0=1e-4 normamps=9999
New Line.2788799 Phases=1 Bus1=26282-10913830.1 Bus2=26282-10913830c.1 Switch=Y r1=1e-4 x1=1e-4 r0=1e-4 x0=1e-4 normamps=9999
New Line.2788663 Phases=1 Bus1=16112-10914768.1 Bus2=16112-10914768c.1 Switch=Y r1=1e-4 x1=1e-4 r0=1e-4 x0=1e-4 normamps=9999
New Line.2747133 Phases=1 Bus1=15842-10696523.2 Bus2=15842-10696523c.2 Switch=Y r1=1e-4 x1=1e-4 r0=1e-4 x0=1e-4 normamps=9999
New Line.2746404 Phases=1 Bus1=15842-10698101.2 Bus2=15842-10698101c.2 Switch=Y r1=1e-4 x1=1e-4 r0=1e-4 x0=1e-4 normamps=9999
New Line.3135105 Phases=1 Bus1=15842-10704921.2 Bus2=15842-10704921c.2 Switch=Y r1=1e-4 x1=1e-4 r0=1e-4 x0=1e-4 normamps=9999
New Line.2899926 Phases=3 Bus1=15842-10704346.1.2.3 Bus2=15842-10704346c.1.2.3 Switch=Y r1=1e-4 x1=1e-4 r0=1e-4 x0=1e-4 normamps=9999
New Line.2748152 Phases=1 Bus1=15842-10704669.1 Bus2=15842-10704669c.1 Switch=Y r1=1e-4 x1=1e-4 r0=1e-4 x0=1e-4 normamps=9999
New Line.3127832 Phases=3 Bus1=21642-10911853.1.2.3 Bus2=21642-10911853c.1.2.3 Switch=Y r1=1e-4 x1=1e-4 r0=1e-4 x0=1e-4 normamps=9999
New Line.2788592 Phases=1 Bus1=26282-10912766.1 Bus2=26282-10912766c.1 Switch=Y r1=1e-4 x1=1e-4 r0=1e-4 x0=1e-4 normamps=9999
New Line.2788645 Phases=1 Bus1=16112-10921451.1 Bus2=16112-10921451c.1 Switch=Y r1=1e-4 x1=1e-4 r0=1e-4 x0=1e-4 normamps=9999
New Line.2789245 Phases=1 Bus1=26282-10922174.3 Bus2=26282-10922174c.3 Switch=Y r1=1e-4 x1=1e-4 r0=1e-4 x0=1e-4 normamps=9999
New Line.2788499 Phases=1 Bus1=16112-10911590.1 Bus2=16112-10911590c.1 Switch=Y r1=1e-4 x1=1e-4 r0=1e-4 x0=1e-4 normamps=9999
New Line.2788835 Phases=1 Bus1=16112-10910979.2 Bus2=16112-10910979c.2 Switch=Y r1=1e-4 x1=1e-4 r0=1e-4 x0=1e-4 normamps=9999
New Line.3098797 Phases=3 Bus1=26283-12340784.1.2.3 Bus2=26283-12340784c.1.2.3 Switch=Y r1=1e-4 x1=1e-4 r0=1e-4 x0=1e-4 normamps=9999
New Line.3099101 Phases=3 Bus1=26283-12343030.1.2.3 Bus2=26283-12343030c.1.2.3 Switch=Y r1=1e-4 x1=1e-4 r0=1e-4 x0=1e-4 normamps=9999
New Line.2845940 Phases=3 Bus1=25323-11271720.1.2.3 Bus2=25323-11271720c.1.2.3 Switch=Y r1=1e-4 x1=1e-4 r0=1e-4 x0=1e-4 normamps=9999
New Line.2846202 Phases=3 Bus1=25323-11274071.1.2.3 Bus2=25323-11274071c.1.2.3 Switch=Y r1=1e-4 x1=1e-4 r0=1e-4 x0=1e-4 normamps=9999
New Line.2715227 Phases=3 Bus1=15662-10520497.1.2.3 Bus2=15662-10520497c.1.2.3 Switch=Y r1=1e-4 x1=1e-4 r0=1e-4 x0=1e-4 normamps=9999
New Line.2789361 Phases=3 Bus1=26282-10911297.1.2.3 Bus2=26282-10911297c.1.2.3 Switch=Y r1=1e-4 x1=1e-4 r0=1e-4 x0=1e-4 normamps=9999
New Line.3192927 Phases=1 Bus1=26282-10910372.1 Bus2=26282-10910372c.1 Switch=Y r1=1e-4 x1=1e-4 r0=1e-4 x0=1e-4 normamps=9999
New Line.2846001 Phases=1 Bus1=25323-11273922.1 Bus2=25323-11273922c.1 Switch=Y r1=1e-4 x1=1e-4 r0=1e-4 x0=1e-4 normamps=9999
New Line.3099383 Phases=3 Bus1=26283-13047307.1.2.3 Bus2=26283-13047307c.1.2.3 Switch=Y r1=1e-4 x1=1e-4 r0=1e-4 x0=1e-4 normamps=9999
New Line.3020313 Phases=2 Bus1=15842-11836849.1.2 Bus2=15842-11836849c.1.2 Switch=Y r1=1e-4 x1=1e-4 r0=1e-4 x0=1e-4 normamps=9999
New Line.3020519 Phases=2 Bus1=15842-11839310.2.3 Bus2=15842-11839310c.2.3 Switch=Y r1=1e-4 x1=1e-4 r0=1e-4 x0=1e-4 normamps=9999
New Line.3025005 Phases=3 Bus1=16107-11870866.1.2.3 Bus2=16107-11870866c.1.2.3 Switch=Y r1=1e-4 x1=1e-4 r0=1e-4 x0=1e-4 normamps=9999
New Line.3071559 Phases=2 Bus1=15842-12160487.1.2 Bus2=15842-12160487c.1.2 Switch=Y r1=1e-4 x1=1e-4 r0=1e-4 x0=1e-4 normamps=9999
New Line.2919476 Phases=3 Bus1=21643-12333967.1.2.3 Bus2=21643-12333967c.1.2.3 Switch=Y r1=1e-4 x1=1e-4 r0=1e-4 x0=1e-4 normamps=9999
New Line.3109235 Phases=3 Bus1=26282-12401530.1.2.3 Bus2=26282-12401530c.1.2.3 Switch=Y r1=1e-4 x1=1e-4 r0=1e-4 x0=1e-4 normamps=9999
New Line.3167631 Phases=3 Bus1=26282-12793259.1.2.3 Bus2=26282-12793259c.1.2.3 Switch=Y r1=1e-4 x1=1e-4 r0=1e-4 x0=1e-4 normamps=9999
New Line.2788493 Phases=3 Bus1=16112-12801115.1.2.3 Bus2=16112-12801115c.1.2.3 Switch=Y r1=1e-4 x1=1e-4 r0=1e-4 x0=1e-4 normamps=9999
New Line.3215147 Phases=1 Bus1=16112-13222431.3 Bus2=16112-13222431c.3 Switch=Y r1=1e-4 x1=1e-4 r0=1e-4 x0=1e-4 normamps=9999
New Line.2876776 Phases=1 Bus1=15842-10698178.2 Bus2=15842-10698178c.2 Switch=Y r1=1e-4 x1=1e-4 r0=1e-4 x0=1e-4 normamps=9999
New Line.3157102 Phases=3 Bus1=15842-10698105.1.2.3 Bus2=15842-10698105c.1.2.3 Switch=Y r1=1e-4 x1=1e-4 r0=1e-4 x0=1e-4 normamps=9999
New Line.2789175 Phases=1 Bus1=16112-10921219.2 Bus2=16112-10921219c.2 Switch=Y r1=1e-4 x1=1e-4 r0=1e-4 x0=1e-4 normamps=9999
New Line.2789266 Phases=3 Bus1=26282-10922654.1.2.3 Bus2=26282-10922654c.1.2.3 Switch=Y r1=1e-4 x1=1e-4 r0=1e-4 x0=1e-4 normamps=9999
New Line.2788895 Phases=1 Bus1=16112-10912382.1 Bus2=16112-10912382c.1 Switch=Y r1=1e-4 x1=1e-4 r0=1e-4 x0=1e-4 normamps=9999
New Line.2788694 Phases=1 Bus1=16112-10920787.3 Bus2=16112-10920787c.3 Switch=Y r1=1e-4 x1=1e-4 r0=1e-4 x0=1e-4 normamps=9999
New Line.2789270 Phases=1 Bus1=26282-10913090.1 Bus2=26282-10913090c.1 Switch=Y r1=1e-4 x1=1e-4 r0=1e-4 x0=1e-4 normamps=9999
New Line.2788784 Phases=3 Bus1=16112-10910608.1.2.3 Bus2=16112-10910608c.1.2.3 Switch=Y r1=1e-4 x1=1e-4 r0=1e-4 x0=1e-4 normamps=9999
New Line.2783340 Phases=3 Bus1=16107-10869844.1.2.3 Bus2=16107-10869844c.1.2.3 Switch=Y r1=1e-4 x1=1e-4 r0=1e-4 x0=1e-4 normamps=9999
New Line.3098884 Phases=3 Bus1=26283-12341305.1.2.3 Bus2=26283-12341305c.1.2.3 Switch=Y r1=1e-4 x1=1e-4 r0=1e-4 x0=1e-4 normamps=9999
New Line.2783373 Phases=3 Bus1=16102-10868378.1.2.3 Bus2=16102-10868378c.1.2.3 Switch=Y r1=1e-4 x1=1e-4 r0=1e-4 x0=1e-4 normamps=9999
New Line.2846143 Phases=1 Bus1=25323-11272747.2 Bus2=25323-11272747c.2 Switch=Y r1=1e-4 x1=1e-4 r0=1e-4 x0=1e-4 normamps=9999
New Line.3113034 Phases=1 Bus1=15842-10708554.1 Bus2=15842-10708554c.1 Switch=Y r1=1e-4 x1=1e-4 r0=1e-4 x0=1e-4 normamps=9999
New Line.2747369 Phases=1 Bus1=15842-10711954.3 Bus2=15842-10711954c.3 Switch=Y r1=1e-4 x1=1e-4 r0=1e-4 x0=1e-4 normamps=9999
New Line.2783449 Phases=1 Bus1=21643-12699689.1 Bus2=21643-12699689c.1 Switch=Y r1=1e-4 x1=1e-4 r0=1e-4 x0=1e-4 normamps=9999
New Line.2789345 Phases=1 Bus1=26282-10910256.1 Bus2=26282-10910256c.1 Switch=Y r1=1e-4 x1=1e-4 r0=1e-4 x0=1e-4 normamps=9999
New Line.2789114 Phases=3 Bus1=26282-10911283.1.2.3 Bus2=26282-10911283c.1.2.3 Switch=Y r1=1e-4 x1=1e-4 r0=1e-4 x0=1e-4 normamps=9999
New Line.2874327 Phases=3 Bus1=25323-11341872.1.2.3 Bus2=25323-11341872c.1.2.3 Switch=Y r1=1e-4 x1=1e-4 r0=1e-4 x0=1e-4 normamps=9999
New Line.2985428 Phases=2 Bus1=15842-11422477.1.2 Bus2=15842-11422477c.1.2 Switch=Y r1=1e-4 x1=1e-4 r0=1e-4 x0=1e-4 normamps=9999
New Line.3020427 Phases=2 Bus1=15842-11838707.1.2 Bus2=15842-11838707c.1.2 Switch=Y r1=1e-4 x1=1e-4 r0=1e-4 x0=1e-4 normamps=9999
New Line.3020439 Phases=2 Bus1=15842-11838889.1.2 Bus2=15842-11838889c.1.2 Switch=Y r1=1e-4 x1=1e-4 r0=1e-4 x0=1e-4 normamps=9999
New Line.3076519 Phases=3 Bus1=21642-12197018.1.2.3 Bus2=21642-12197018c.1.2.3 Switch=Y r1=1e-4 x1=1e-4 r0=1e-4 x0=1e-4 normamps=9999
New Line.3097787 Phases=3 Bus1=16102-12336442.1.2.3 Bus2=16102-12336442c.1.2.3 Switch=Y r1=1e-4 x1=1e-4 r0=1e-4 x0=1e-4 normamps=9999
New Line.3215222 Phases=1 Bus1=26282-13223568.1 Bus2=26282-13223568c.1 Switch=Y r1=1e-4 x1=1e-4 r0=1e-4 x0=1e-4 normamps=9999
New Line.3021207 Phases=2 Bus1=15842-11844710.3.1 Bus2=15842-11844710c.3.1 Switch=Y r1=1e-4 x1=1e-4 r0=1e-4 x0=1e-4 normamps=9999
New Line.3098155 Phases=3 Bus1=16112-10914051.1.2.3 Bus2=16112-10914051c.1.2.3 Switch=Y r1=1e-4 x1=1e-4 r0=1e-4 x0=1e-4 normamps=9999
New Line.3214516 Phases=1 Bus1=16112-13216791.1 Bus2=16112-13216791c.1 Switch=Y r1=1e-4 x1=1e-4 r0=1e-4 x0=1e-4 normamps=9999
New Line.2747312 Phases=1 Bus1=15842-10697626.2 Bus2=15842-10697626c.2 Switch=Y r1=1e-4 x1=1e-4 r0=1e-4 x0=1e-4 normamps=9999
New Line.2746911 Phases=1 Bus1=15842-10703848.3 Bus2=15842-10703848c.3 Switch=Y r1=1e-4 x1=1e-4 r0=1e-4 x0=1e-4 normamps=9999
New Line.2747989 Phases=1 Bus1=15842-10703293.1 Bus2=15842-10703293c.1 Switch=Y r1=1e-4 x1=1e-4 r0=1e-4 x0=1e-4 normamps=9999
New Line.2747892 Phases=1 Bus1=15842-10705020.1 Bus2=15842-10705020c.1 Switch=Y r1=1e-4 x1=1e-4 r0=1e-4 x0=1e-4 normamps=9999
New Line.2788588 Phases=1 Bus1=16112-10911990.1 Bus2=16112-10911990c.1 Switch=Y r1=1e-4 x1=1e-4 r0=1e-4 x0=1e-4 normamps=9999
New Line.2789321 Phases=1 Bus1=26282-10921915.1 Bus2=26282-10921915c.1 Switch=Y r1=1e-4 x1=1e-4 r0=1e-4 x0=1e-4 normamps=9999
New Line.2789108 Phases=1 Bus1=16112-10922666.1 Bus2=16112-10922666c.1 Switch=Y r1=1e-4 x1=1e-4 r0=1e-4 x0=1e-4 normamps=9999
New Line.2789052 Phases=3 Bus1=26282-10922145.1.2.3 Bus2=26282-10922145c.1.2.3 Switch=Y r1=1e-4 x1=1e-4 r0=1e-4 x0=1e-4 normamps=9999
New Line.2789133 Phases=1 Bus1=26282-10922188.1 Bus2=26282-10922188c.1 Switch=Y r1=1e-4 x1=1e-4 r0=1e-4 x0=1e-4 normamps=9999
New Line.2789022 Phases=3 Bus1=16112-10921098.1.2.3 Bus2=16112-10921098c.1.2.3 Switch=Y r1=1e-4 x1=1e-4 r0=1e-4 x0=1e-4 normamps=9999
New Line.2788963 Phases=1 Bus1=26282-10910517.1 Bus2=26282-10910517c.1 Switch=Y r1=1e-4 x1=1e-4 r0=1e-4 x0=1e-4 normamps=9999
New Line.2783465 Phases=3 Bus1=16102-10871137.1.2.3 Bus2=16102-10871137c.1.2.3 Switch=Y r1=1e-4 x1=1e-4 r0=1e-4 x0=1e-4 normamps=9999
New Line.2846246 Phases=3 Bus1=25324-11272013.1.2.3 Bus2=25324-11272013c.1.2.3 Switch=Y r1=1e-4 x1=1e-4 r0=1e-4 x0=1e-4 normamps=9999
New Line.2846025 Phases=1 Bus1=25323-11272317.3 Bus2=25323-11272317c.3 Switch=Y r1=1e-4 x1=1e-4 r0=1e-4 x0=1e-4 normamps=9999
New Line.2846228 Phases=3 Bus1=25323-11271454.1.2.3 Bus2=25323-11271454c.1.2.3 Switch=Y r1=1e-4 x1=1e-4 r0=1e-4 x0=1e-4 normamps=9999
New Line.3134337 Phases=3 Bus1=25324-11273565.1.2.3 Bus2=25324-11273565c.1.2.3 Switch=Y r1=1e-4 x1=1e-4 r0=1e-4 x0=1e-4 normamps=9999
New Line.2746451 Phases=3 Bus1=15842-10705581.1.2.3 Bus2=15842-10705581c.1.2.3 Switch=Y r1=1e-4 x1=1e-4 r0=1e-4 x0=1e-4 normamps=9999
New Line.2747605 Phases=1 Bus1=15842-10707413.1 Bus2=15842-10707413c.1 Switch=Y r1=1e-4 x1=1e-4 r0=1e-4 x0=1e-4 normamps=9999
New Line.2747232 Phases=1 Bus1=15842-10708392.2 Bus2=15842-10708392c.2 Switch=Y r1=1e-4 x1=1e-4 r0=1e-4 x0=1e-4 normamps=9999
New Line.2746732 Phases=1 Bus1=15842-10708461.1 Bus2=15842-10708461c.1 Switch=Y r1=1e-4 x1=1e-4 r0=1e-4 x0=1e-4 normamps=9999
New Line.2746642 Phases=1 Bus1=15842-10709758.1 Bus2=15842-10709758c.1 Switch=Y r1=1e-4 x1=1e-4 r0=1e-4 x0=1e-4 normamps=9999
New Line.2785598 Phases=3 Bus1=16107-10889036.1.2.3 Bus2=16107-10889036c.1.2.3 Switch=Y r1=1e-4 x1=1e-4 r0=1e-4 x0=1e-4 normamps=9999
New Line.2927459 Phases=1 Bus1=15842-11422578.2 Bus2=15842-11422578c.2 Switch=Y r1=1e-4 x1=1e-4 r0=1e-4 x0=1e-4 normamps=9999
New Line.3026917 Phases=1 Bus1=16112-11488481.1 Bus2=16112-11488481c.1 Switch=Y r1=1e-4 x1=1e-4 r0=1e-4 x0=1e-4 normamps=9999
New Line.2989768 Phases=3 Bus1=15662-12102583.1.2.3 Bus2=15662-12102583c.1.2.3 Switch=Y r1=1e-4 x1=1e-4 r0=1e-4 x0=1e-4 normamps=9999
New Line.3020973 Phases=2 Bus1=15842-11842928.2.3 Bus2=15842-11842928c.2.3 Switch=Y r1=1e-4 x1=1e-4 r0=1e-4 x0=1e-4 normamps=9999
New Line.3021247 Phases=1 Bus1=25323-11844921.1 Bus2=25323-11844921c.1 Switch=Y r1=1e-4 x1=1e-4 r0=1e-4 x0=1e-4 normamps=9999
New Line.3031160 Phases=1 Bus1=16112-11911455.1 Bus2=16112-11911455c.1 Switch=Y r1=1e-4 x1=1e-4 r0=1e-4 x0=1e-4 normamps=9999
New Line.3090935 Phases=3 Bus1=26283-12189504.1.2.3 Bus2=26283-12189504c.1.2.3 Switch=Y r1=1e-4 x1=1e-4 r0=1e-4 x0=1e-4 normamps=9999
New Line.2748133 Phases=3 Bus1=15842-12531024.1.2.3 Bus2=15842-12531024c.1.2.3 Switch=Y r1=1e-4 x1=1e-4 r0=1e-4 x0=1e-4 normamps=9999
New Line.2785602 Phases=3 Bus1=16107-12568126.1.2.3 Bus2=16107-12568126c.1.2.3 Switch=Y r1=1e-4 x1=1e-4 r0=1e-4 x0=1e-4 normamps=9999
New Line.2788542 Phases=3 Bus1=26282-10914528.1.2.3 Bus2=26282-10914528c.1.2.3 Switch=Y r1=1e-4 x1=1e-4 r0=1e-4 x0=1e-4 normamps=9999
New Line.2748153 Phases=1 Bus1=15842-10697158.3 Bus2=15842-10697158c.3 Switch=Y r1=1e-4 x1=1e-4 r0=1e-4 x0=1e-4 normamps=9999
New Line.2746412 Phases=1 Bus1=15842-10700268.3 Bus2=15842-10700268c.3 Switch=Y r1=1e-4 x1=1e-4 r0=1e-4 x0=1e-4 normamps=9999
New Line.2746891 Phases=1 Bus1=15842-10703709.3 Bus2=15842-10703709c.3 Switch=Y r1=1e-4 x1=1e-4 r0=1e-4 x0=1e-4 normamps=9999
New Line.2789110 Phases=1 Bus1=26282-10922482.1 Bus2=26282-10922482c.1 Switch=Y r1=1e-4 x1=1e-4 r0=1e-4 x0=1e-4 normamps=9999
New Line.3134623 Phases=3 Bus1=16112-10912129.1.2.3 Bus2=16112-10912129c.1.2.3 Switch=Y r1=1e-4 x1=1e-4 r0=1e-4 x0=1e-4 normamps=9999
New Line.2788870 Phases=3 Bus1=26282-10920006.1.2.3 Bus2=26282-10920006c.1.2.3 Switch=Y r1=1e-4 x1=1e-4 r0=1e-4 x0=1e-4 normamps=9999
New Line.2788683 Phases=1 Bus1=16112-10922667.2 Bus2=16112-10922667c.2 Switch=Y r1=1e-4 x1=1e-4 r0=1e-4 x0=1e-4 normamps=9999
New Line.2788875 Phases=3 Bus1=26282-10922153.1.2.3 Bus2=26282-10922153c.1.2.3 Switch=Y r1=1e-4 x1=1e-4 r0=1e-4 x0=1e-4 normamps=9999
New Line.2788684 Phases=1 Bus1=16112-10912805.2 Bus2=16112-10912805c.2 Switch=Y r1=1e-4 x1=1e-4 r0=1e-4 x0=1e-4 normamps=9999
New Line.2788773 Phases=1 Bus1=26282-10911735.1 Bus2=26282-10911735c.1 Switch=Y r1=1e-4 x1=1e-4 r0=1e-4 x0=1e-4 normamps=9999
New Line.2783272 Phases=3 Bus1=16102-10871139.1.2.3 Bus2=16102-10871139c.1.2.3 Switch=Y r1=1e-4 x1=1e-4 r0=1e-4 x0=1e-4 normamps=9999
...
